.subckt dut_sub a\[2\]=a\[2\] a\[3\]=a\[3\] a\[4\]=a\[4\] a\[5\]=a\[5\] a\[6\]=a\[6\] a\[7\]=a\[7\] a\[8\]=a\[8\] a\[9\]=a\[9\] a\[10\]=a\[10\] a\[11\]=a\[11\] a\[12\]=a\[12\] a\[13\]=a\[13\] a\[14\]=a\[14\] a\[15\]=a\[15\] a\[16\]=a\[16\] a\[17\]=a\[17\] a\[18\]=a\[18\] a\[19\]=a\[19\] a\[20\]=a\[20\] a\[21\]=a\[21\] a\[22\]=a\[22\] a\[23\]=a\[23\] a\[24\]=a\[24\] a\[25\]=a\[25\] a\[26\]=a\[26\] a\[27\]=a\[27\] a\[28\]=a\[28\] a\[29\]=a\[29\] a\[30\]=a\[30\] a\[31\]=a\[31\] a\[32\]=a\[32\] a_l\[2\]=a_l\[2\] a_l\[3\]=a_l\[3\] a_l\[4\]=a_l\[4\] a_l\[5\]=a_l\[5\] a_l\[6\]=a_l\[6\] a_l\[7\]=a_l\[7\] a_l\[8\]=a_l\[8\] a_l\[9\]=a_l\[9\] a_l\[10\]=a_l\[10\] a_l\[11\]=a_l\[11\] a_l\[12\]=a_l\[12\] a_l\[13\]=a_l\[13\] a_l\[14\]=a_l\[14\] a_l\[15\]=a_l\[15\] a_l\[16\]=a_l\[16\] a_l\[17\]=a_l\[17\] a_l\[18\]=a_l\[18\] a_l\[19\]=a_l\[19\] a_l\[20\]=a_l\[20\] a_l\[21\]=a_l\[21\] a_l\[22\]=a_l\[22\] a_l\[23\]=a_l\[23\] a_l\[24\]=a_l\[24\] a_l\[25\]=a_l\[25\] a_l\[26\]=a_l\[26\] a_l\[27\]=a_l\[27\] a_l\[28\]=a_l\[28\] a_l\[29\]=a_l\[29\] a_l\[30\]=a_l\[30\] a_l\[31\]=a_l\[31\] a_l\[32\]=a_l\[32\] clk=clk
